       3
Water
  O         0.0026910000        0.0000000000        0.0030380000        0.0001230553        0.0000000000        0.0001304169
  H        -0.0234560000        0.0000000000        0.9282300000       -0.0011517485        0.0000000000       -0.0010919091
  H         0.9073800000        0.0000000000       -0.2592320000       -0.0008008991        0.0000000000       -0.0009775511
       3
Water
  O         0.0051874229        0.0000000000        0.0052215634        0.0000951037        0.0000000000        0.0000733240
  H        -0.0506361023        0.0000000000        0.9143176172       -0.0011487395        0.0000000000       -0.0000978328
  H         0.8949368184        0.0000000000       -0.2799771876       -0.0003603689        0.0000000000       -0.0010656745
       3
Water
  O         0.0067580719        0.0000000000        0.0060963630        0.0000566663        0.0000000000        0.0000059963
  H        -0.0731611019        0.0000000000        0.9264027106       -0.0010537975        0.0000000000        0.0009677183
  H         0.8925324406        0.0000000000       -0.3059471215        0.0001546146        0.0000000000       -0.0010628655
       3
Water
  O         0.0074364717        0.0000000000        0.0059170512        0.0000258222        0.0000000000       -0.0000316886
  H        -0.0900655294        0.0000000000        0.9563163131       -0.0008953616        0.0000000000        0.0014795519
  H         0.8986692899        0.0000000000       -0.3330146826        0.0004856122        0.0000000000       -0.0009767114
       3
Water
  O         0.0076005397        0.0000000000        0.0053676689        0.0000077734        0.0000000000       -0.0000304748
  H        -0.1024705149        0.0000000000        0.9882741545       -0.0006066195        0.0000000000        0.0011925955
  H         0.9084701847        0.0000000000       -0.3562527150        0.0004832710        0.0000000000       -0.0007090178
       3
Water
  O         0.0076126520        0.0000000000        0.0050356058        0.0000021027        0.0000000000       -0.0000074747
  H        -0.1100164229        0.0000000000        1.0072220684       -0.0002580439        0.0000000000        0.0004387997
  H         0.9158238445        0.0000000000       -0.3699301149        0.0002246782        0.0000000000       -0.0003201906
       3
Water
  O         0.0076873473        0.0000000000        0.0051704047        0.0000018463        0.0000000000        0.0000185250
  H        -0.1124135109        0.0000000000        1.0068887824        0.0000843431        0.0000000000       -0.0003833968
  H         0.9170353682        0.0000000000       -0.3717363600       -0.0001136398        0.0000000000        0.0000894412
       3
Water
  O         0.0078347250        0.0000000000        0.0057130786       -0.0000005979        0.0000000000        0.0000369605
  H        -0.1097104015        0.0000000000        0.9890314181        0.0004052842        0.0000000000       -0.0010516923
  H         0.9119930753        0.0000000000       -0.3624923291       -0.0003957961        0.0000000000        0.0004652045
       3
Water
  O         0.0078981077        0.0000000000        0.0064031187       -0.0000116169        0.0000000000        0.0000361428
  H        -0.1018352829        0.0000000000        0.9600513750        0.0006862744        0.0000000000       -0.0013374380
  H         0.9031119448        0.0000000000       -0.3444646198       -0.0005019369        0.0000000000        0.0007639236
       3
Water
  O         0.0075761461        0.0000000000        0.0067504655       -0.0000338024        0.0000000000        0.0000042991
  H        -0.0883555059        0.0000000000        0.9315785064        0.0008651060        0.0000000000       -0.0009854590
  H         0.8947423513        0.0000000000       -0.3215048468       -0.0003287276        0.0000000000        0.0009172387
